25
 energy: -101.526578480684 gnorm: 0.000475188920 xtb: 6.4.1 (conda-forge)
Fe       -0.00000000000000    0.00000000000000    0.00000000000000
C         0.00000000000000    1.99711500000000    0.00000000000000
F         0.85996090396652    2.69278522337463    0.87386065705700
F         0.33357400426262    2.67943111089559   -1.19127980928801
F        -1.19016993557635    2.70503008062595    0.29729658876614
C         1.99711500000000   -0.00000000000000    0.00000000000000
F         2.73679795580692   -0.57951676348404    1.05335087178300
F         2.62245611457900   -0.68150725478573   -1.06732460501331
F         2.72267827602847    1.21200708738159   -0.09619653791570
C         0.00000000000000   -1.99711500000000    0.00000000000000
F        -0.42920662867499   -2.66729197624052    1.16920813292351
F        -0.80216708500474   -2.68953778243205   -0.92852797342989
F         1.20075151550321   -2.71927753796694   -0.20110910434742
C        -1.99711500000000   -0.00000000000000   -0.00000000000000
F        -2.64793141417804    0.63713495855112    1.07909289016460
F        -2.71057841659673    0.62837328705323   -1.04352441141988
F        -2.72441652207949   -1.21437879526747    0.02571513252626
C         0.00000000000000   -0.00000000000000    2.09714100000000
F        -1.11204562727860   -0.59733331596988    2.72610326551442
F         1.00873744348605   -0.65897090041775    2.83238407176329
F         0.00013646798138    1.22083586034090    2.80834693992610
C        -0.00000000000000   -0.00000000000000   -2.13442400000000
F        -1.03321820835444    0.59564917556600   -2.88987653694273
F         1.08980124456712    0.65704940005207   -2.74234305748605
F         0.08369364445497   -1.22132241320479   -2.84078293942884
